5317592
  -OEChem-04052102202D

 54 55  0     0  0  0  0  0  0999 V2000
    7.1962    4.4050    0.0000 O   0  0  0  0  0  0  0  0  0  0  0  0
   10.6603    4.4050    0.0000 O   0  0  0  0  0  0  0  0  0  0  0  0
    2.8660   -3.0950    0.0000 O   0  0  0  0  0  0  0  0  0  0  0  0
    8.9282    5.4050    0.0000 O   0  0  0  0  0  0  0  0  0  0  0  0
    8.0622   -2.0950    0.0000 O   0  0  0  0  0  0  0  0  0  0  0  0
    2.8660   -5.0950    0.0000 O   0  0  0  0  0  0  0  0  0  0  0  0
    8.9282    1.4050    0.0000 C   0  0  0  0  0  0  0  0  0  0  0  0
    8.0622    0.9050    0.0000 C   0  0  0  0  0  0  0  0  0  0  0  0
    8.9282    2.4050    0.0000 C   0  0  0  0  0  0  0  0  0  0  0  0
    6.3301   -3.0950    0.0000 C   0  0  0  0  0  0  0  0  0  0  0  0
    6.3301   -2.0950    0.0000 C   0  0  0  0  0  0  0  0  0  0  0  0
    5.4641   -3.5950    0.0000 C   0  0  0  0  0  0  0  0  0  0  0  0
    8.0622   -0.0950    0.0000 C   0  0  0  0  0  0  0  0  0  0  0  0
    9.7942    2.9050    0.0000 C   0  0  0  0  0  0  0  0  0  0  0  0
    8.0622    2.9050    0.0000 C   0  0  0  0  0  0  0  0  0  0  0  0
    7.1962   -1.5950    0.0000 C   0  0  0  0  0  0  0  0  0  0  0  0
    7.1962   -0.5950    0.0000 C   0  0  0  0  0  0  0  0  0  0  0  0
    8.0622    3.9050    0.0000 C   0  0  0  0  0  0  0  0  0  0  0  0
    9.7942    3.9050    0.0000 C   0  0  0  0  0  0  0  0  0  0  0  0
    4.5981   -3.0950    0.0000 C   0  0  0  0  0  0  0  0  0  0  0  0
    8.9282    4.4050    0.0000 C   0  0  0  0  0  0  0  0  0  0  0  0
    5.4641   -4.5950    0.0000 C   0  0  0  0  0  0  0  0  0  0  0  0
    3.7320   -3.5950    0.0000 C   0  0  0  0  0  0  0  0  0  0  0  0
    4.5981   -5.0950    0.0000 C   0  0  0  0  0  0  0  0  0  0  0  0
    3.7320   -4.5950    0.0000 C   0  0  0  0  0  0  0  0  0  0  0  0
    6.3301    3.9050    0.0000 C   0  0  0  0  0  0  0  0  0  0  0  0
   11.5263    3.9050    0.0000 C   0  0  0  0  0  0  0  0  0  0  0  0
    2.0000   -3.5950    0.0000 C   0  0  0  0  0  0  0  0  0  0  0  0
    9.1403    0.8224    0.0000 H   0  0  0  0  0  0  0  0  0  0  0  0
    9.5388    1.5127    0.0000 H   0  0  0  0  0  0  0  0  0  0  0  0
    7.8501    1.4876    0.0000 H   0  0  0  0  0  0  0  0  0  0  0  0
    7.4516    0.7973    0.0000 H   0  0  0  0  0  0  0  0  0  0  0  0
    6.5422   -3.6776    0.0000 H   0  0  0  0  0  0  0  0  0  0  0  0
    6.9407   -2.9873    0.0000 H   0  0  0  0  0  0  0  0  0  0  0  0
    6.1181   -1.5124    0.0000 H   0  0  0  0  0  0  0  0  0  0  0  0
    5.7196   -2.2027    0.0000 H   0  0  0  0  0  0  0  0  0  0  0  0
    8.5991   -0.4050    0.0000 H   0  0  0  0  0  0  0  0  0  0  0  0
   10.3312    2.5950    0.0000 H   0  0  0  0  0  0  0  0  0  0  0  0
    7.5252    2.5950    0.0000 H   0  0  0  0  0  0  0  0  0  0  0  0
    6.6592   -0.2850    0.0000 H   0  0  0  0  0  0  0  0  0  0  0  0
    4.5981   -2.4750    0.0000 H   0  0  0  0  0  0  0  0  0  0  0  0
    6.0010   -4.9050    0.0000 H   0  0  0  0  0  0  0  0  0  0  0  0
    4.5981   -5.7150    0.0000 H   0  0  0  0  0  0  0  0  0  0  0  0
    9.4651    5.7150    0.0000 H   0  0  0  0  0  0  0  0  0  0  0  0
    6.0201    4.4419    0.0000 H   0  0  0  0  0  0  0  0  0  0  0  0
    5.7932    3.5950    0.0000 H   0  0  0  0  0  0  0  0  0  0  0  0
    6.6401    3.3681    0.0000 H   0  0  0  0  0  0  0  0  0  0  0  0
   11.2163    3.3681    0.0000 H   0  0  0  0  0  0  0  0  0  0  0  0
   12.0632    3.5950    0.0000 H   0  0  0  0  0  0  0  0  0  0  0  0
   11.8363    4.4419    0.0000 H   0  0  0  0  0  0  0  0  0  0  0  0
    2.8660   -5.7150    0.0000 H   0  0  0  0  0  0  0  0  0  0  0  0
    1.6900   -3.0581    0.0000 H   0  0  0  0  0  0  0  0  0  0  0  0
    1.4631   -3.9050    0.0000 H   0  0  0  0  0  0  0  0  0  0  0  0
    2.3100   -4.1319    0.0000 H   0  0  0  0  0  0  0  0  0  0  0  0
  1 18  1  0  0  0  0
  1 26  1  0  0  0  0
  2 19  1  0  0  0  0
  2 27  1  0  0  0  0
  3 23  1  0  0  0  0
  3 28  1  0  0  0  0
  4 21  1  0  0  0  0
  4 44  1  0  0  0  0
  5 16  2  0  0  0  0
  6 25  1  0  0  0  0
  6 51  1  0  0  0  0
  7  8  1  0  0  0  0
  7  9  1  0  0  0  0
  7 29  1  0  0  0  0
  7 30  1  0  0  0  0
  8 13  1  0  0  0  0
  8 31  1  0  0  0  0
  8 32  1  0  0  0  0
  9 14  2  0  0  0  0
  9 15  1  0  0  0  0
 10 11  1  0  0  0  0
 10 12  1  0  0  0  0
 10 33  1  0  0  0  0
 10 34  1  0  0  0  0
 11 16  1  0  0  0  0
 11 35  1  0  0  0  0
 11 36  1  0  0  0  0
 12 20  2  0  0  0  0
 12 22  1  0  0  0  0
 13 17  2  0  0  0  0
 13 37  1  0  0  0  0
 14 19  1  0  0  0  0
 14 38  1  0  0  0  0
 15 18  2  0  0  0  0
 15 39  1  0  0  0  0
 16 17  1  0  0  0  0
 17 40  1  0  0  0  0
 18 21  1  0  0  0  0
 19 21  2  0  0  0  0
 20 23  1  0  0  0  0
 20 41  1  0  0  0  0
 22 24  2  0  0  0  0
 22 42  1  0  0  0  0
 23 25  2  0  0  0  0
 24 25  1  0  0  0  0
 24 43  1  0  0  0  0
 26 45  1  0  0  0  0
 26 46  1  0  0  0  0
 26 47  1  0  0  0  0
 27 48  1  0  0  0  0
 27 49  1  0  0  0  0
 27 50  1  0  0  0  0
 28 52  1  0  0  0  0
 28 53  1  0  0  0  0
 28 54  1  0  0  0  0
M  END
> <PUBCHEM_COMPOUND_CID>
5317592

> <PUBCHEM_COMPOUND_CANONICALIZED>
1

> <PUBCHEM_CACTVS_COMPLEXITY>
479

> <PUBCHEM_CACTVS_HBOND_ACCEPTOR>
6

> <PUBCHEM_CACTVS_HBOND_DONOR>
2

> <PUBCHEM_CACTVS_ROTATABLE_BOND>
10

> <PUBCHEM_CACTVS_SUBSKEYS>
AAADceB4OAAAAAAAAAAAAAAAAAAAAAAAAAAwYAAAAAAAAAABQAAAGgAACAAADASAmAIyBoAABgCIAqBSAAACCAAgIAAIiAEGiMgNJzKGMRqAcCMlwBULuYeI6LyOIAABCAAAQABAAAIQAACAAAAAAAAAAA==

> <PUBCHEM_IUPAC_OPENEYE_NAME>
(E)-7-(4-hydroxy-3,5-dimethoxy-phenyl)-1-(4-hydroxy-3-methoxy-phenyl)hept-4-en-3-one

> <PUBCHEM_IUPAC_CAS_NAME>
(E)-7-(4-hydroxy-3,5-dimethoxyphenyl)-1-(4-hydroxy-3-methoxyphenyl)-4-hepten-3-one

> <PUBCHEM_IUPAC_NAME_MARKUP>
(<I>E</I>)-7-(4-hydroxy-3,5-dimethoxyphenyl)-1-(4-hydroxy-3-methoxyphenyl)hept-4-en-3-one

> <PUBCHEM_IUPAC_NAME>
(E)-7-(4-hydroxy-3,5-dimethoxyphenyl)-1-(4-hydroxy-3-methoxyphenyl)hept-4-en-3-one

> <PUBCHEM_IUPAC_SYSTEMATIC_NAME>
(E)-7-(3,5-dimethoxy-4-oxidanyl-phenyl)-1-(3-methoxy-4-oxidanyl-phenyl)hept-4-en-3-one

> <PUBCHEM_IUPAC_TRADITIONAL_NAME>
(E)-7-(4-hydroxy-3,5-dimethoxy-phenyl)-1-(4-hydroxy-3-methoxy-phenyl)hept-4-en-3-one

> <PUBCHEM_IUPAC_INCHI>
InChI=1S/C22H26O6/c1-26-19-12-15(9-11-18(19)24)8-10-17(23)7-5-4-6-16-13-20(27-2)22(25)21(14-16)28-3/h5,7,9,11-14,24-25H,4,6,8,10H2,1-3H3/b7-5+

> <PUBCHEM_IUPAC_INCHIKEY>
BGYDJLLXKGVQBP-FNORWQNLSA-N

> <PUBCHEM_XLOGP3_AA>
3.7

> <PUBCHEM_EXACT_MASS>
386.172939

> <PUBCHEM_MOLECULAR_FORMULA>
C22H26O6

> <PUBCHEM_MOLECULAR_WEIGHT>
386.4

> <PUBCHEM_OPENEYE_CAN_SMILES>
COC1=CC(=CC(=C1O)OC)CCC=CC(=O)CCC2=CC(=C(C=C2)O)OC

> <PUBCHEM_OPENEYE_ISO_SMILES>
COC1=CC(=CC(=C1O)OC)CC/C=C/C(=O)CCC2=CC(=C(C=C2)O)OC

> <PUBCHEM_CACTVS_TPSA>
85.2

> <PUBCHEM_MONOISOTOPIC_WEIGHT>
386.172939

> <PUBCHEM_TOTAL_CHARGE>
0

> <PUBCHEM_HEAVY_ATOM_COUNT>
28

> <PUBCHEM_ATOM_DEF_STEREO_COUNT>
0

> <PUBCHEM_ATOM_UDEF_STEREO_COUNT>
0

> <PUBCHEM_BOND_DEF_STEREO_COUNT>
1

> <PUBCHEM_BOND_UDEF_STEREO_COUNT>
0

> <PUBCHEM_ISOTOPIC_ATOM_COUNT>
0

> <PUBCHEM_COMPONENT_COUNT>
1

> <PUBCHEM_CACTVS_TAUTO_COUNT>
-1

> <PUBCHEM_COORDINATE_TYPE>
1
5
255

> <PUBCHEM_BONDANNOTATIONS>
12  20  8
12  22  8
14  19  8
15  18  8
18  21  8
19  21  8
20  23  8
22  24  8
23  25  8
24  25  8
9  14  8
9  15  8

$$$$
