5280805
  -OEChem-04052101522D

 73 77  0     1  0  0  0  0  0999 V2000
    6.9343   -0.2500    0.0000 O   0  0  0  0  0  0  0  0  0  0  0  0
    6.0682   -2.7500    0.0000 O   0  0  0  0  0  0  0  0  0  0  0  0
    4.3362   -2.7500    0.0000 O   0  0  0  0  0  0  0  0  0  0  0  0
    7.8003   -2.7500    0.0000 O   0  0  0  0  0  0  0  0  0  0  0  0
    9.5323   -1.7500    0.0000 O   0  0  0  0  0  0  0  0  0  0  0  0
    7.8003    1.2500    0.0000 O   0  0  0  0  0  0  0  0  0  0  0  0
    9.5323    0.2500    0.0000 O   0  0  0  0  0  0  0  0  0  0  0  0
    6.0682   -4.7500    0.0000 O   0  0  0  0  0  0  0  0  0  0  0  0
    4.3362   -5.7500    0.0000 O   0  0  0  0  0  0  0  0  0  0  0  0
    2.6042   -4.7500    0.0000 O   0  0  0  0  0  0  0  0  0  0  0  0
    6.0682    3.2500    0.0000 O   0  0  0  0  0  0  0  0  0  0  0  0
    6.0682    0.2500    0.0000 O   0  0  0  0  0  0  0  0  0  0  0  0
    4.3198    0.2154    0.0000 O   0  0  0  0  0  0  0  0  0  0  0  0
    2.5381    3.2742    0.0000 O   0  0  0  0  0  0  0  0  0  0  0  0
    8.6663    5.7500    0.0000 O   0  0  0  0  0  0  0  0  0  0  0  0
   10.3984    4.7500    0.0000 O   0  0  0  0  0  0  0  0  0  0  0  0
    6.9343   -1.2500    0.0000 C   0  0  1  0  0  0  0  0  0  0  0  0
    7.8003   -1.7500    0.0000 C   0  0  2  0  0  0  0  0  0  0  0  0
    8.6663   -1.2500    0.0000 C   0  0  1  0  0  0  0  0  0  0  0  0
    8.6663   -0.2500    0.0000 C   0  0  2  0  0  0  0  0  0  0  0  0
    5.2022   -4.2500    0.0000 C   0  0  1  0  0  0  0  0  0  0  0  0
    5.2022   -3.2500    0.0000 C   0  0  2  0  0  0  0  0  0  0  0  0
    4.3362   -4.7500    0.0000 C   0  0  1  0  0  0  0  0  0  0  0  0
    3.4702   -4.2500    0.0000 C   0  0  2  0  0  0  0  0  0  0  0  0
    7.8003    0.2500    0.0000 C   0  0  1  0  0  0  0  0  0  0  0  0
    6.0682   -1.7500    0.0000 C   0  0  0  0  0  0  0  0  0  0  0  0
    3.4702   -3.2500    0.0000 C   0  0  2  0  0  0  0  0  0  0  0  0
    2.6042   -2.7500    0.0000 C   0  0  0  0  0  0  0  0  0  0  0  0
    6.9343    1.7500    0.0000 C   0  0  0  0  0  0  0  0  0  0  0  0
    6.9343    2.7500    0.0000 C   0  0  0  0  0  0  0  0  0  0  0  0
    6.0682    1.2500    0.0000 C   0  0  0  0  0  0  0  0  0  0  0  0
    5.2022    1.7500    0.0000 C   0  0  0  0  0  0  0  0  0  0  0  0
    7.8003    3.2500    0.0000 C   0  0  0  0  0  0  0  0  0  0  0  0
    5.2022    2.7500    0.0000 C   0  0  0  0  0  0  0  0  0  0  0  0
    4.3083    1.2153    0.0000 C   0  0  0  0  0  0  0  0  0  0  0  0
    4.3083    3.2847    0.0000 C   0  0  0  0  0  0  0  0  0  0  0  0
    7.8003    4.2500    0.0000 C   0  0  0  0  0  0  0  0  0  0  0  0
    8.6663    2.7500    0.0000 C   0  0  0  0  0  0  0  0  0  0  0  0
    3.4022    1.7292    0.0000 C   0  0  0  0  0  0  0  0  0  0  0  0
    3.4022    2.7708    0.0000 C   0  0  0  0  0  0  0  0  0  0  0  0
    8.6663    4.7500    0.0000 C   0  0  0  0  0  0  0  0  0  0  0  0
    9.5323    3.2500    0.0000 C   0  0  0  0  0  0  0  0  0  0  0  0
    9.5323    4.2500    0.0000 C   0  0  0  0  0  0  0  0  0  0  0  0
    6.3973   -0.9400    0.0000 H   0  0  0  0  0  0  0  0  0  0  0  0
    8.3372   -2.0600    0.0000 H   0  0  0  0  0  0  0  0  0  0  0  0
    9.2033   -0.9400    0.0000 H   0  0  0  0  0  0  0  0  0  0  0  0
    9.2033   -0.5600    0.0000 H   0  0  0  0  0  0  0  0  0  0  0  0
    5.2022   -4.8700    0.0000 H   0  0  0  0  0  0  0  0  0  0  0  0
    5.2022   -2.6300    0.0000 H   0  0  0  0  0  0  0  0  0  0  0  0
    3.7993   -5.0600    0.0000 H   0  0  0  0  0  0  0  0  0  0  0  0
    2.9332   -3.9400    0.0000 H   0  0  0  0  0  0  0  0  0  0  0  0
    8.3372    0.5600    0.0000 H   0  0  0  0  0  0  0  0  0  0  0  0
    5.8562   -1.1674    0.0000 H   0  0  0  0  0  0  0  0  0  0  0  0
    5.4577   -1.8577    0.0000 H   0  0  0  0  0  0  0  0  0  0  0  0
    3.4702   -2.6300    0.0000 H   0  0  0  0  0  0  0  0  0  0  0  0
    2.9141   -2.2131    0.0000 H   0  0  0  0  0  0  0  0  0  0  0  0
    2.0672   -2.4400    0.0000 H   0  0  0  0  0  0  0  0  0  0  0  0
    2.2942   -3.2869    0.0000 H   0  0  0  0  0  0  0  0  0  0  0  0
    8.3372   -3.0600    0.0000 H   0  0  0  0  0  0  0  0  0  0  0  0
   10.0693   -1.4400    0.0000 H   0  0  0  0  0  0  0  0  0  0  0  0
    9.5323    0.8700    0.0000 H   0  0  0  0  0  0  0  0  0  0  0  0
    6.6052   -4.4400    0.0000 H   0  0  0  0  0  0  0  0  0  0  0  0
    3.7993   -6.0600    0.0000 H   0  0  0  0  0  0  0  0  0  0  0  0
    2.0672   -4.4400    0.0000 H   0  0  0  0  0  0  0  0  0  0  0  0
    4.3154    3.9046    0.0000 H   0  0  0  0  0  0  0  0  0  0  0  0
    7.2634    4.5600    0.0000 H   0  0  0  0  0  0  0  0  0  0  0  0
    8.6663    2.1300    0.0000 H   0  0  0  0  0  0  0  0  0  0  0  0
    2.8665    1.4171    0.0000 H   0  0  0  0  0  0  0  0  0  0  0  0
   10.0693    2.9400    0.0000 H   0  0  0  0  0  0  0  0  0  0  0  0
    3.7865   -0.1008    0.0000 H   0  0  0  0  0  0  0  0  0  0  0  0
    2.0000    2.9662    0.0000 H   0  0  0  0  0  0  0  0  0  0  0  0
    8.1294    6.0600    0.0000 H   0  0  0  0  0  0  0  0  0  0  0  0
   10.9353    4.4400    0.0000 H   0  0  0  0  0  0  0  0  0  0  0  0
  1 17  1  0  0  0  0
  1 25  1  0  0  0  0
 22  2  1  1  0  0  0
  2 26  1  0  0  0  0
  3 22  1  0  0  0  0
  3 27  1  0  0  0  0
 18  4  1  6  0  0  0
  4 59  1  0  0  0  0
 19  5  1  1  0  0  0
  5 60  1  0  0  0  0
 25  6  1  1  0  0  0
  6 29  1  0  0  0  0
 20  7  1  6  0  0  0
  7 61  1  0  0  0  0
 21  8  1  6  0  0  0
  8 62  1  0  0  0  0
 23  9  1  6  0  0  0
  9 63  1  0  0  0  0
 24 10  1  1  0  0  0
 10 64  1  0  0  0  0
 11 30  1  0  0  0  0
 11 34  1  0  0  0  0
 12 31  2  0  0  0  0
 13 35  1  0  0  0  0
 13 70  1  0  0  0  0
 14 40  1  0  0  0  0
 14 71  1  0  0  0  0
 15 41  1  0  0  0  0
 15 72  1  0  0  0  0
 16 43  1  0  0  0  0
 16 73  1  0  0  0  0
 17 18  1  0  0  0  0
 17 26  1  1  0  0  0
 17 44  1  0  0  0  0
 18 19  1  0  0  0  0
 18 45  1  0  0  0  0
 19 20  1  0  0  0  0
 19 46  1  0  0  0  0
 20 25  1  0  0  0  0
 20 47  1  0  0  0  0
 21 22  1  0  0  0  0
 21 23  1  0  0  0  0
 21 48  1  0  0  0  0
 22 49  1  0  0  0  0
 23 24  1  0  0  0  0
 23 50  1  0  0  0  0
 24 27  1  0  0  0  0
 24 51  1  0  0  0  0
 25 52  1  0  0  0  0
 26 53  1  0  0  0  0
 26 54  1  0  0  0  0
 27 28  1  6  0  0  0
 27 55  1  0  0  0  0
 28 56  1  0  0  0  0
 28 57  1  0  0  0  0
 28 58  1  0  0  0  0
 29 30  2  0  0  0  0
 29 31  1  0  0  0  0
 30 33  1  0  0  0  0
 31 32  1  0  0  0  0
 32 34  1  0  0  0  0
 32 35  2  0  0  0  0
 33 37  2  0  0  0  0
 33 38  1  0  0  0  0
 34 36  2  0  0  0  0
 35 39  1  0  0  0  0
 36 40  1  0  0  0  0
 36 65  1  0  0  0  0
 37 41  1  0  0  0  0
 37 66  1  0  0  0  0
 38 42  2  0  0  0  0
 38 67  1  0  0  0  0
 39 40  2  0  0  0  0
 39 68  1  0  0  0  0
 41 43  2  0  0  0  0
 42 43  1  0  0  0  0
 42 69  1  0  0  0  0
M  END
> <PUBCHEM_COMPOUND_CID>
5280805

> <PUBCHEM_COMPOUND_CANONICALIZED>
1

> <PUBCHEM_CACTVS_COMPLEXITY>
1020

> <PUBCHEM_CACTVS_HBOND_ACCEPTOR>
16

> <PUBCHEM_CACTVS_HBOND_DONOR>
10

> <PUBCHEM_CACTVS_ROTATABLE_BOND>
6

> <PUBCHEM_CACTVS_SUBSKEYS>
AAADceB4PgAAAAAAAAAAAAAAAAAAAAAAAAA0aIECAAAAAACBQAAAGgAACAAADBSwmAMyDoAABgCIAqBSAAICCAAkIAAIiAFGiMgdNzaGNR6ieWGl4BUPuQfI7LzOIAABCAAIQABAAAIQABCAAAAAAAAAAA==

> <PUBCHEM_IUPAC_OPENEYE_NAME>
2-(3,4-dihydroxyphenyl)-5,7-dihydroxy-3-[(2S,3R,4S,5S,6R)-3,4,5-trihydroxy-6-[[(2R,3R,4R,5R,6S)-3,4,5-trihydroxy-6-methyl-tetrahydropyran-2-yl]oxymethyl]tetrahydropyran-2-yl]oxy-chromen-4-one

> <PUBCHEM_IUPAC_CAS_NAME>
2-(3,4-dihydroxyphenyl)-5,7-dihydroxy-3-[[(2S,3R,4S,5S,6R)-3,4,5-trihydroxy-6-[[(2R,3R,4R,5R,6S)-3,4,5-trihydroxy-6-methyl-2-oxanyl]oxymethyl]-2-oxanyl]oxy]-1-benzopyran-4-one

> <PUBCHEM_IUPAC_NAME_MARKUP>
2-(3,4-dihydroxyphenyl)-5,7-dihydroxy-3-[(2<I>S</I>,3<I>R</I>,4<I>S</I>,5<I>S</I>,6<I>R</I>)-3,4,5-trihydroxy-6-[[(2<I>R</I>,3<I>R</I>,4<I>R</I>,5<I>R</I>,6<I>S</I>)-3,4,5-trihydroxy-6-methyloxan-2-yl]oxymethyl]oxan-2-yl]oxychromen-4-one

> <PUBCHEM_IUPAC_NAME>
2-(3,4-dihydroxyphenyl)-5,7-dihydroxy-3-[(2S,3R,4S,5S,6R)-3,4,5-trihydroxy-6-[[(2R,3R,4R,5R,6S)-3,4,5-trihydroxy-6-methyloxan-2-yl]oxymethyl]oxan-2-yl]oxychromen-4-one

> <PUBCHEM_IUPAC_SYSTEMATIC_NAME>
2-[3,4-bis(oxidanyl)phenyl]-3-[(2S,3R,4S,5S,6R)-6-[[(2R,3R,4R,5R,6S)-6-methyl-3,4,5-tris(oxidanyl)oxan-2-yl]oxymethyl]-3,4,5-tris(oxidanyl)oxan-2-yl]oxy-5,7-bis(oxidanyl)chromen-4-one

> <PUBCHEM_IUPAC_TRADITIONAL_NAME>
2-(3,4-dihydroxyphenyl)-5,7-dihydroxy-3-[(2S,3R,4S,5S,6R)-3,4,5-trihydroxy-6-[[(2R,3R,4R,5R,6S)-3,4,5-trihydroxy-6-methyl-tetrahydropyran-2-yl]oxymethyl]tetrahydropyran-2-yl]oxy-chromone

> <PUBCHEM_IUPAC_INCHI>
InChI=1S/C27H30O16/c1-8-17(32)20(35)22(37)26(40-8)39-7-15-18(33)21(36)23(38)27(42-15)43-25-19(34)16-13(31)5-10(28)6-14(16)41-24(25)9-2-3-11(29)12(30)4-9/h2-6,8,15,17-18,20-23,26-33,35-38H,7H2,1H3/t8-,15+,17-,18+,20+,21-,22+,23+,26+,27-/m0/s1

> <PUBCHEM_IUPAC_INCHIKEY>
IKGXIBQEEMLURG-NVPNHPEKSA-N

> <PUBCHEM_XLOGP3_AA>
-1.3

> <PUBCHEM_EXACT_MASS>
610.153385

> <PUBCHEM_MOLECULAR_FORMULA>
C27H30O16

> <PUBCHEM_MOLECULAR_WEIGHT>
610.5

> <PUBCHEM_OPENEYE_CAN_SMILES>
CC1C(C(C(C(O1)OCC2C(C(C(C(O2)OC3=C(OC4=CC(=CC(=C4C3=O)O)O)C5=CC(=C(C=C5)O)O)O)O)O)O)O)O

> <PUBCHEM_OPENEYE_ISO_SMILES>
C[C@H]1[C@@H]([C@H]([C@H]([C@@H](O1)OC[C@@H]2[C@H]([C@@H]([C@H]([C@@H](O2)OC3=C(OC4=CC(=CC(=C4C3=O)O)O)C5=CC(=C(C=C5)O)O)O)O)O)O)O)O

> <PUBCHEM_CACTVS_TPSA>
266

> <PUBCHEM_MONOISOTOPIC_WEIGHT>
610.153385

> <PUBCHEM_TOTAL_CHARGE>
0

> <PUBCHEM_HEAVY_ATOM_COUNT>
43

> <PUBCHEM_ATOM_DEF_STEREO_COUNT>
10

> <PUBCHEM_ATOM_UDEF_STEREO_COUNT>
0

> <PUBCHEM_BOND_DEF_STEREO_COUNT>
0

> <PUBCHEM_BOND_UDEF_STEREO_COUNT>
0

> <PUBCHEM_ISOTOPIC_ATOM_COUNT>
0

> <PUBCHEM_COMPONENT_COUNT>
1

> <PUBCHEM_CACTVS_TAUTO_COUNT>
-1

> <PUBCHEM_COORDINATE_TYPE>
1
5
255

> <PUBCHEM_BONDANNOTATIONS>
24  10  5
11  30  8
11  34  8
17  26  5
22  2  5
27  28  6
29  30  8
29  31  8
31  32  8
32  34  8
32  35  8
33  37  8
33  38  8
34  36  8
35  39  8
36  40  8
37  41  8
38  42  8
39  40  8
18  4  6
41  43  8
42  43  8
19  5  5
25  6  5
20  7  6
21  8  6
23  9  6

$$$$
